LTspice 26.0.1 for Windows
Circuit: D:\spyder projects\tc2\tareas_semanales\ts4\circuitos\circuito1.net
Start Time: Sat May 30 10:17:02 2026
solver = Normal
Maximum thread count: 4
tnom = 27
temp = 27
method = trap
.OP point found by inspection.
.OP point found by inspection.
Total elapsed time: 0.058 seconds.

Files loaded:
D:\spyder projects\tc2\tareas_semanales\ts4\circuitos\circuito1.net
C:\Users\brian\AppData\Local\LTspice\lib\sub\opamp.sub

