LTspice 26.0.1 for Windows
Circuit: D:\spyder projects\tc2\tareas_semanales\ts2\circuitos\Draft1.net
Start Time: Fri May  1 22:36:51 2026
solver = Normal
Maximum thread count: 4
tnom = 27
temp = 27
method = trap
.OP point found by inspection.
.OP point found by inspection.
Total elapsed time: 0.048 seconds.

Files loaded:
D:\spyder projects\tc2\tareas_semanales\ts2\circuitos\Draft1.net
C:\Users\brian\AppData\Local\LTspice\lib\sub\opamp.sub

