LTspice 26.0.2 for Windows
Circuit: D:\documentos\utn\tc2\tareas_semanales\ts3\circuitos\punto4.net
Start Time: Mon Jun 15 18:08:08 2026
solver = Normal
Maximum thread count: 12
tnom = 27
temp = 27
method = trap
Compress1stOrder = true
Compress2ndOrder = true
.OP point found by inspection.
.OP point found by inspection.
Total elapsed time: 0.037 seconds.

Files loaded:
D:\documentos\utn\tc2\tareas_semanales\ts3\circuitos\punto4.net
C:\Users\brian\AppData\Local\LTspice\lib\sub\opamp.sub

